Circuit: * U:\BE_Capteurs\PIR_EasyPeasy\kjhgkhgkj.asc

Direct Newton iteration failed to find .op point.  (Use ".option noopiter" to skip.)
Starting Gmin stepping
Gmin = 10
Gmin = 1.07374
Gmin = 0.115292
Gmin = 0.0123794
Gmin = 0.00132923
Gmin = 0.000142725
Gmin = 1.5325e-005
Gmin = 1.6455e-006
vernier = 0.5
vernier = 0.25
Gmin = 3.45087e-007
vernier = 0.125
vernier = 0.0625
vernier = 0.0833333
Gmin = 3.00191e-007
vernier = 0.111111
vernier = 0.148148
Gmin = 2.30857e-007
vernier = 0.197531
Gmin = 1.51253e-007
vernier = 0.263374
vernier = 0.351165
Gmin = 7.63785e-008
vernier = 0.46822
vernier = 0.624294
Gmin = 2.64181e-008
vernier = 0.832392
Gmin = 4.97123e-009
vernier = 1
Gmin = 5.52295e-010
Gmin = 5.93023e-011
Gmin = 6.36753e-012
Gmin = 6.83709e-013
Gmin = 0
Gmin stepping succeeded in finding the operating point.


Date: Wed Jan 06 10:30:12 2021
Total elapsed time: 0.294 seconds.

tnom = 27
temp = 27
method = modified trap
totiter = 3332
traniter = 2432
tranpoints = 1115
accept = 1085
rejected = 30
matrix size = 24
fillins = 19
solver = Normal
Thread vector: 6.4/4.9[2] 2.2/1.8[2] 1.1/1.3[1] 0.1/0.8[1]  2592/500
Matrix Compiler1: 1.95 KB object code size  0.7/0.3/[0.2]
Matrix Compiler2: 2.49 KB object code size  0.4/0.4/[0.2]

